StructureFPYVAE
                    3D
 Schrodinger Suite 2023-4.
100102  0  0  1  0            999 V2000
    0.0000   -2.1213    1.2247 C   0  0  0  0  0  0
   -0.5000   -0.7071    1.2247 C   0  0  0  0  0  0
   -2.0000   -0.7071    1.2247 C   0  0  0  0  0  0
    0.0000    0.0000    0.0000 C   0  0  2  0  0  0
    1.4600    0.0000    0.0000 N   0  0  0  0  0  0
    2.2343   -0.5427   -0.9401 C   0  0  0  0  0  0
    1.7824   -1.1134   -1.9285 O   0  0  0  0  0  0
    3.6918   -0.3655   -0.6331 C   0  0  2  0  0  0
    4.3447    0.4107   -1.7381 C   0  0  0  0  0  0
    5.8022    0.5879   -1.4311 C   0  0  0  0  0  0
    6.7619    0.0853   -2.3017 C   0  0  0  0  0  0
    8.1124    0.2495   -2.0173 C   0  0  0  0  0  0
    8.5032    0.9164   -0.8622 C   0  0  0  0  0  0
    9.8441    1.0795   -0.5798 O   0  0  0  0  0  0
    7.5435    1.4191    0.0084 C   0  0  0  0  0  0
    6.1930    1.2548   -0.2761 C   0  0  0  0  0  0
    4.3273   -1.6747   -0.5166 N   0  0  0  0  0  0
    4.2803   -2.4656    0.5559 C   0  0  0  0  0  0
    3.6798   -2.1618    1.5825 O   0  0  0  0  0  0
    5.0402   -3.7411    0.3421 C   0  0  2  0  0  0
    6.4907   -3.4931   -0.0679 C   0  0  0  0  0  0
    6.8446   -4.6906   -0.9395 C   0  0  0  0  0  0
    5.5576   -4.9947   -1.7043 C   0  0  0  0  0  0
    4.5203   -4.5293   -0.7805 N   0  0  0  0  0  0
    3.2166   -4.8098   -0.9637 C   0  0  0  0  0  0
    2.3243   -4.4309   -0.1992 O   0  0  0  0  0  0
    2.9867   -5.6306   -2.1979 C   0  0  1  0  0  0
    3.0561   -7.0490   -1.8590 N   0  0  0  0  0  0
    1.6326   -5.3170   -2.7619 C   0  0  0  0  0  0
    1.4027   -6.1378   -3.9962 C   0  0  0  0  0  0
    1.7784   -5.6434   -5.2395 C   0  0  0  0  0  0
    1.5654   -6.4039   -6.3831 C   0  0  0  0  0  0
    0.9766   -7.6589   -6.2834 C   0  0  0  0  0  0
    0.6009   -8.1534   -5.0400 C   0  0  0  0  0  0
    0.8139   -7.3928   -3.8964 C   0  0  0  0  0  0
   -0.5000    1.4142    0.0000 C   0  0  0  0  0  0
   -0.2638    2.2495    0.8679 O   0  0  0  0  0  0
   -1.2487    1.6754   -1.0719 N   0  0  0  0  0  0
   -1.8843    2.9554   -1.3707 C   0  0  1  0  0  0
   -2.2110    3.0221   -2.8332 C   0  0  0  0  0  0
   -3.1459    3.0862   -0.5700 C   0  0  0  0  0  0
   -4.1070    2.3251   -0.6322 O   0  0  0  0  0  0
   -3.1123    4.1457    0.2387 N   0  0  0  0  0  0
   -4.1799    4.5527    1.1476 C   0  0  1  0  0  0
   -3.6650    4.5508    2.5565 C   0  0  0  0  0  0
   -3.2002    3.1710    2.9171 C   0  0  0  0  0  0
   -4.3473    2.2112    2.8027 C   0  0  0  0  0  0
   -4.4252    1.2264    2.0769 O   0  0  0  0  0  0
   -5.3379    2.5922    3.6487 O   0  0  0  0  0  0
   -4.6447    5.9326    0.7870 C   0  0  0  0  0  0
   -4.6277    6.9332    1.4949 O   0  0  0  0  0  0
   -5.1099    5.9310   -0.4880 O   0  0  0  0  0  0
   -0.3633   -2.6352    0.3348 H   0  0  0  0  0  0
    1.0900   -2.1213    1.2247 H   0  0  0  0  0  0
   -0.3633   -2.6352    2.1147 H   0  0  0  0  0  0
   -0.1367   -0.1933    2.1147 H   0  0  0  0  0  0
   -2.3633   -1.2209    0.3348 H   0  0  0  0  0  0
   -2.3633   -1.2209    2.1147 H   0  0  0  0  0  0
   -2.3633    0.3206    1.2247 H   0  0  0  0  0  0
   -0.3633   -0.5138   -0.8900 H   0  0  0  0  0  0
    1.7888    0.4775    0.8270 H   0  0  0  0  0  0
    3.8020    0.1767    0.3061 H   0  0  0  0  0  0
    4.2346   -0.1315   -2.6773 H   0  0  0  0  0  0
    3.8703    1.3882   -1.8251 H   0  0  0  0  0  0
    6.4577   -0.4339   -3.2010 H   0  0  0  0  0  0
    8.8595   -0.1418   -2.6951 H   0  0  0  0  0  0
   10.0405    1.5697    0.2694 H   0  0  0  0  0  0
    7.8477    1.9383    0.9077 H   0  0  0  0  0  0
    5.4459    1.6462    0.4018 H   0  0  0  0  0  0
    4.8083   -1.8847   -1.3795 H   0  0  0  0  0  0
    4.9902   -4.3296    1.2607 H   0  0  0  0  0  0
    6.5564   -2.5728   -0.6520 H   0  0  0  0  0  0
    7.1548   -3.3822    0.7908 H   0  0  0  0  0  0
    7.6894   -4.4974   -1.6026 H   0  0  0  0  0  0
    7.1113   -5.5437   -0.3121 H   0  0  0  0  0  0
    5.5149   -4.4189   -2.6316 H   0  0  0  0  0  0
    5.4653   -6.0548   -1.9517 H   0  0  0  0  0  0
    3.7517   -5.3960   -2.9380 H   0  0  0  0  0  0
    3.9678   -7.2607   -1.4792 H   0  0  0  0  0  0
    2.3466   -7.2672   -1.1741 H   0  0  0  0  0  0
    0.8675   -5.5516   -2.0218 H   0  0  0  0  0  0
    1.5807   -4.2581   -3.0149 H   0  0  0  0  0  0
    2.2368   -4.6663   -5.3172 H   0  0  0  0  0  0
    1.8580   -6.0190   -7.3511 H   0  0  0  0  0  0
    0.8108   -8.2510   -7.1737 H   0  0  0  0  0  0
    0.1425   -9.1304   -4.9624 H   0  0  0  0  0  0
    0.5213   -7.7778   -2.9284 H   0  0  0  0  0  0
   -1.4678    1.0197   -1.8082 H   0  0  0  0  0  0
   -1.2045    3.7675   -1.1129 H   0  0  0  0  0  0
   -2.6855    3.9777   -3.0563 H   0  0  0  0  0  0
   -1.2942    2.9270   -3.4150 H   0  0  0  0  0  0
   -2.8908    2.2099   -3.0910 H   0  0  0  0  0  0
   -2.3442    4.7963    0.3214 H   0  0  0  0  0  0
   -5.0135    3.8553    1.0645 H   0  0  0  0  0  0
   -2.8314    5.2483    2.6396 H   0  0  0  0  0  0
   -4.4620    4.8547    3.2351 H   0  0  0  0  0  0
   -2.4032    2.8671    2.2385 H   0  0  0  0  0  0
   -2.8260    3.1696    3.9409 H   0  0  0  0  0  0
   -6.0524    1.9814    3.5674 H   0  0  0  0  0  0
   -5.3987    6.8033   -0.7024 H   0  0  0  0  0  0
  1  2  1  0  0  0
  1 53  1  0  0  0
  1 54  1  0  0  0
  1 55  1  0  0  0
  2  3  1  0  0  0
  2  4  1  0  0  0
  2 56  1  0  0  0
  3 57  1  0  0  0
  3 58  1  0  0  0
  3 59  1  0  0  0
  4  5  1  0  0  0
  4 36  1  0  0  0
  4 60  1  0  0  0
  5  6  1  0  0  0
  5 61  1  0  0  0
  6  7  2  0  0  0
  6  8  1  0  0  0
  8  9  1  0  0  0
  8 17  1  0  0  0
  8 62  1  0  0  0
  9 10  1  0  0  0
  9 63  1  0  0  0
  9 64  1  0  0  0
 10 11  2  0  0  0
 10 16  1  0  0  0
 11 12  1  0  0  0
 11 65  1  0  0  0
 12 13  2  0  0  0
 12 66  1  0  0  0
 13 14  1  0  0  0
 13 15  1  0  0  0
 14 67  1  0  0  0
 15 16  2  0  0  0
 15 68  1  0  0  0
 16 69  1  0  0  0
 17 18  1  0  0  0
 17 70  1  0  0  0
 18 19  2  0  0  0
 18 20  1  0  0  0
 20 21  1  0  0  0
 20 24  1  0  0  0
 20 71  1  0  0  0
 21 22  1  0  0  0
 21 72  1  0  0  0
 21 73  1  0  0  0
 22 23  1  0  0  0
 22 74  1  0  0  0
 22 75  1  0  0  0
 23 24  1  0  0  0
 23 76  1  0  0  0
 23 77  1  0  0  0
 24 25  1  0  0  0
 25 26  2  0  0  0
 25 27  1  0  0  0
 27 28  1  0  0  0
 27 29  1  0  0  0
 27 78  1  0  0  0
 28 79  1  0  0  0
 28 80  1  0  0  0
 29 30  1  0  0  0
 29 81  1  0  0  0
 29 82  1  0  0  0
 30 31  2  0  0  0
 30 35  1  0  0  0
 31 32  1  0  0  0
 31 83  1  0  0  0
 32 33  2  0  0  0
 32 84  1  0  0  0
 33 34  1  0  0  0
 33 85  1  0  0  0
 34 35  2  0  0  0
 34 86  1  0  0  0
 35 87  1  0  0  0
 36 37  2  0  0  0
 36 38  1  0  0  0
 38 39  1  0  0  0
 38 88  1  0  0  0
 39 40  1  0  0  0
 39 41  1  0  0  0
 39 89  1  0  0  0
 40 90  1  0  0  0
 40 91  1  0  0  0
 40 92  1  0  0  0
 41 42  2  0  0  0
 41 43  1  0  0  0
 43 44  1  0  0  0
 43 93  1  0  0  0
 44 45  1  0  0  0
 44 50  1  0  0  0
 44 94  1  0  0  0
 45 46  1  0  0  0
 45 95  1  0  0  0
 45 96  1  0  0  0
 46 47  1  0  0  0
 46 97  1  0  0  0
 46 98  1  0  0  0
 47 48  2  0  0  0
 47 49  1  0  0  0
 49 99  1  0  0  0
 50 51  2  0  0  0
 50 52  1  0  0  0
 52100  1  0  0  0
M  END
$$$$
